########## Name:		ZINC02260256
##########    Grid Score:         -102.610252
##########           vdw:           12.937646
##########            es:         -115.547897

@<TRIPOS>MOLECULE
ZINC02260256
 34 34 1 0 0
SMALL
USER_CHARGES
2-(2-hydroxyphosphonoylethyl-phenyl-phosphanyl)ethylphosphinic acid

@<TRIPOS>ATOM
      1 C1         35.7642   11.7394   63.3990 C.ar    1  <0>        -0.1164
      2 C2         35.4018   11.1226   62.2146 C.ar    1  <0>        -0.1193
      3 C3         34.3168   10.2707   62.1813 C.ar    1  <0>        -0.1039
      4 C4         33.5852   10.0323   63.3439 C.ar    1  <0>        -0.2610
      5 C5         33.9517   10.6608   64.5331 C.ar    1  <0>        -0.1237
      6 C6         35.0414   11.5068   64.5557 C.ar    1  <0>        -0.1172
      7 P1         32.1570    8.9143   63.3075 P.3     1  <0>         0.4904
      8 C7         31.0017    9.5660   62.0569 C.3     1  <0>        -0.2806
      9 C8         29.8707   10.3250   62.7537 C.3     1  <0>        -0.7138
     10 P2         30.5781   11.6049   63.8420 P.3     1  <0>         2.2531
     11 H1         29.6616   12.6828   63.9629 H       1  <0>        -0.3887
     12 O1         30.8386   11.0266   65.1793 O.2     1  <0>        -0.9898
     13 O2         31.9586   12.1422   63.2116 O.3     1  <0>        -0.8513
     14 C9         32.7553    7.3054   62.6935 C.3     1  <0>        -0.2874
     15 C10        32.1510    6.1810   63.5372 C.3     1  <0>        -0.7152
     16 P3         32.9333    6.1691   65.1837 P.3     1  <0>         2.2554
     17 H2         34.3016    5.8120   65.0552 H       1  <0>        -0.3852
     18 O3         32.2457    5.1851   66.0494 O.2     1  <0>        -0.9948
     19 O4         32.8206    7.6342   65.8420 O.3     1  <0>        -0.8505
     20 H3         36.6141   12.4053   63.4205 H       1  <0>         0.1257
     21 H4         35.9695   11.3077   61.3149 H       1  <0>         0.1271
     22 H5         34.0347    9.7900   61.2563 H       1  <0>         0.1254
     23 H6         33.3860   10.4830   65.4357 H       1  <0>         0.1196
     24 H7         35.3286   11.9914   65.4772 H       1  <0>         0.1255
     25 H8         31.5343   10.2417   61.3875 H       1  <0>         0.0623
     26 H9         30.5845    8.7393   61.4822 H       1  <0>         0.1033
     27 H10        29.2339   10.7960   62.0050 H       1  <0>         0.1337
     28 H11        29.2786    9.6292   63.3483 H       1  <0>         0.0999
     29 H12        32.6328   11.4579   63.1003 H       1  <0>         0.4369
     30 H13        33.8423    7.2702   62.7663 H       1  <0>         0.0852
     31 H14        32.4562    7.1796   61.6529 H       1  <0>         0.0815
     32 H15        32.3251    5.2240   63.0453 H       1  <0>         0.1223
     33 H16        31.0787    6.3441   63.6455 H       1  <0>         0.1147
     34 H17        33.2170    7.7017   66.7213 H       1  <0>         0.4368
@<TRIPOS>BOND
     1     1     6   ar
     2     1     2   ar
     3     1    20    1
     4     2     3   ar
     5     2    21    1
     6     3     4   ar
     7     3    22    1
     8     4     5   ar
     9     4     7    1
    10     5     6   ar
    11     5    23    1
    12     6    24    1
    13     7     8    1
    14     7    14    1
    15     8     9    1
    16     8    25    1
    17     8    26    1
    18     9    10    1
    19     9    27    1
    20     9    28    1
    21    10    11    1
    22    10    12    2
    23    10    13    1
    24    13    29    1
    25    14    15    1
    26    14    30    1
    27    14    31    1
    28    15    16    1
    29    15    32    1
    30    15    33    1
    31    16    17    1
    32    16    18    2
    33    16    19    1
    34    19    34    1
@<TRIPOS>SUBSTRUCTURE
     1 <0>         1 TEMP              0 ****  ****    0 ROOT