########## Name:                ZINC02260255
##########    Grid Score:         -102.051849
##########           vdw:           15.133008
##########            es:         -117.184860

@<TRIPOS>MOLECULE
ZINC02260255
 34 34 1 0 0
SMALL
USER_CHARGES
2-(2-hydroxyphosphonoylethyl-phenyl-phosphanyl)ethylphosphinic acid

@<TRIPOS>ATOM
      1 C1         32.8432    5.0606   62.3696 C.ar    1  <0>        -0.1164
      2 C2         31.7871    5.6048   63.0789 C.ar    1  <0>        -0.1193
      3 C3         31.8230    6.9281   63.4677 C.ar    1  <0>        -0.1039
      4 C4         32.9260    7.7173   63.1444 C.ar    1  <0>        -0.2610
      5 C5         33.9846    7.1649   62.4250 C.ar    1  <0>        -0.1237
      6 C6         33.9401    5.8391   62.0456 C.ar    1  <0>        -0.1172
      7 P1         32.9798    9.4582   63.6517 P.3     1  <0>         0.4904
      8 C7         31.8743   10.3748   62.5286 C.3     1  <0>        -0.2874
      9 C8         31.7259   11.8153   63.0226 C.3     1  <0>        -0.7152
     10 P2         31.0483   12.8503   61.6838 P.3     1  <0>         2.2554
     11 H1         30.8625   14.1758   62.1580 H       1  <0>        -0.3852
     12 O1         29.7481   12.2974   61.2429 O.2     1  <0>        -0.9948
     13 O2         32.0745   12.8629   60.4433 O.3     1  <0>        -0.8505
     14 C9         34.6737   10.0533   63.3351 C.3     1  <0>        -0.2806
     15 C10        34.8626   11.4245   63.9867 C.3     1  <0>        -0.7138
     16 P3         35.3167   11.2076   65.7387 P.3     1  <0>         2.2531
     17 H2         36.4604   10.3711   65.8312 H       1  <0>        -0.3887
     18 O3         35.6210   12.5271   66.3365 O.2     1  <0>        -0.9898
     19 O4         34.0902   10.5296   66.5311 O.3     1  <0>        -0.8513
     20 H3         32.8109    4.0243   62.0674 H       1  <0>         0.1257
     21 H4         30.9335    4.9924   63.3291 H       1  <0>         0.1271
     22 H5         30.9980    7.3520   64.0211 H       1  <0>         0.1254
     23 H6         34.8396    7.7727   62.1682 H       1  <0>         0.1196
     24 H7         34.7614    5.4092   61.4915 H       1  <0>         0.1255
     25 H8         30.8962    9.8944   62.5097 H       1  <0>         0.0852
     26 H9         32.2976   10.3771   61.5242 H       1  <0>         0.0815
     27 H10        32.7016   12.1995   63.3207 H       1  <0>         0.1223
     28 H11        31.0499   11.8383   63.8775 H       1  <0>         0.1147
     29 H12        32.9552   13.1952   60.6649 H       1  <0>         0.4368
     30 H13        35.3910    9.3488   63.7564 H       1  <0>         0.0623
     31 H14        34.8345   10.1364   62.2602 H       1  <0>         0.1033
     32 H15        35.6552   11.9662   63.4701 H       1  <0>         0.1337
     33 H16        33.9331   11.9899   63.9195 H       1  <0>         0.0999
     34 H17        34.2616   10.3847   67.4717 H       1  <0>         0.4369
@<TRIPOS>BOND
     1     1     6   ar
     2     1     2   ar
     3     1    20    1
     4     2     3   ar
     5     2    21    1
     6     3     4   ar
     7     3    22    1
     8     4     5   ar
     9     4     7    1
    10     5     6   ar
    11     5    23    1
    12     6    24    1
    13     7     8    1
    14     7    14    1
    15     8     9    1
    16     8    25    1
    17     8    26    1
    18     9    10    1
    19     9    27    1
    20     9    28    1
    21    10    11    1
    22    10    12    2
    23    10    13    1
    24    13    29    1
    25    14    15    1
    26    14    30    1
    27    14    31    1
    28    15    16    1
    29    15    32    1
    30    15    33    1
    31    16    17    1
    32    16    18    2
    33    16    19    1
    34    19    34    1
@<TRIPOS>SUBSTRUCTURE
     1 <0>         1 TEMP              0 ****  ****    0 ROOT