########## Name:		ZINC02260257
##########    Grid Score:         -107.084488
##########           vdw:           14.624420
##########            es:         -121.708908

@<TRIPOS>MOLECULE
ZINC02260257
 34 34 1 0 0
SMALL
USER_CHARGES
2-(2-hydroxyphosphonoylethyl-phenyl-phosphanyl)ethylphosphinic acid

@<TRIPOS>ATOM
      1 C1         35.5797   11.2624   66.0285 C.ar    1  <0>        -0.1163
      2 C2         34.4055   10.9007   66.6648 C.ar    1  <0>        -0.1206
      3 C3         33.3821   10.3144   65.9488 C.ar    1  <0>        -0.1050
      4 C4         33.5329   10.0862   64.5818 C.ar    1  <0>        -0.2601
      5 C5         34.7207   10.4471   63.9473 C.ar    1  <0>        -0.1246
      6 C6         35.7352   11.0380   64.6722 C.ar    1  <0>        -0.1163
      7 P1         32.1919    9.3159   63.6339 P.3     1  <0>         0.4886
      8 C7         31.8291   10.4206   62.2296 C.3     1  <0>        -0.2885
      9 C8         30.9515   11.5797   62.7062 C.3     1  <0>        -0.7140
     10 P2         31.0266   12.9376   61.4922 P.3     1  <0>         2.2527
     11 H1         30.8660   14.1799   62.1612 H       1  <0>        -0.3825
     12 O1         29.9443   12.7699   60.4967 O.2     1  <0>        -0.9953
     13 O2         32.4523   12.9111   60.7448 O.3     1  <0>        -0.8514
     14 C9         32.8536    7.7671   62.9363 C.3     1  <0>        -0.2826
     15 C10        31.7214    6.7483   62.7914 C.3     1  <0>        -0.7139
     16 P3         31.5048    5.8525   64.3643 P.3     1  <0>         2.2547
     17 H2         31.0789    6.7594   65.3706 H       1  <0>        -0.3896
     18 O3         32.7913    5.2400   64.7644 O.2     1  <0>        -0.9906
     19 O4         30.3968    4.6996   64.1771 O.3     1  <0>        -0.8515
     20 H3         36.3779   11.7213   66.5929 H       1  <0>         0.1256
     21 H4         34.2896   11.0780   67.7239 H       1  <0>         0.1266
     22 H5         32.4660   10.0325   66.4465 H       1  <0>         0.1248
     23 H6         34.8450   10.2682   62.8894 H       1  <0>         0.1248
     24 H7         36.6542   11.3217   64.1808 H       1  <0>         0.1266
     25 H8         32.7622   10.8134   61.8260 H       1  <0>         0.0817
     26 H9         31.3043    9.8622   61.4544 H       1  <0>         0.0882
     27 H10        29.9213   11.2382   62.8062 H       1  <0>         0.1153
     28 H11        31.3117   11.9351   63.6716 H       1  <0>         0.1196
     29 H12        32.6278   12.0922   60.2615 H       1  <0>         0.4368
     30 H13        33.2899    7.9667   61.9576 H       1  <0>         0.1045
     31 H14        33.6195    7.3672   63.6008 H       1  <0>         0.0615
     32 H15        30.7964    7.2666   62.5382 H       1  <0>         0.0996
     33 H16        31.9691    6.0399   62.0008 H       1  <0>         0.1342
     34 H17        30.6220    4.0432   63.5035 H       1  <0>         0.4369
@<TRIPOS>BOND
     1     1     6   ar
     2     1     2   ar
     3     1    20    1
     4     2     3   ar
     5     2    21    1
     6     3     4   ar
     7     3    22    1
     8     4     5   ar
     9     4     7    1
    10     5     6   ar
    11     5    23    1
    12     6    24    1
    13     7     8    1
    14     7    14    1
    15     8     9    1
    16     8    25    1
    17     8    26    1
    18     9    10    1
    19     9    27    1
    20     9    28    1
    21    10    11    1
    22    10    12    2
    23    10    13    1
    24    13    29    1
    25    14    15    1
    26    14    30    1
    27    14    31    1
    28    15    16    1
    29    15    32    1
    30    15    33    1
    31    16    17    1
    32    16    18    2
    33    16    19    1
    34    19    34    1
@<TRIPOS>SUBSTRUCTURE
     1 <0>         1 TEMP              0 ****  ****    0 ROOT