SSH1_75stepsFH (1).pdb
 OpenBabel06251509183D

156156  0  0  0  0  0  0  0  0999 V2000
    6.6680   42.4250  -12.2580 N   0  0  0  0  0
    7.8460   42.3270  -11.3900 C   0  0  0  0  0
    7.8270   43.4160  -10.3010 C   0  0  0  0  0
    9.0900   43.3640   -9.4390 C   0  0  0  0  0
    7.7880   44.8200  -10.9100 C   0  0  0  0  0
    7.8700   40.9280  -10.7720 C   0  0  0  0  0
    6.9360   40.5280  -10.0680 O   0  0  0  0  0
    5.7810   42.5400  -11.8110 H   0  0  0  0  0
    8.7580   42.4640  -11.9900 H   0  0  0  0  0
    6.9430   43.2810   -9.6600 H   0  0  0  0  0
    9.0590   44.1580   -8.6780 H   0  0  0  0  0
    9.1590   42.3920   -8.9290 H   0  0  0  0  0
    9.9820   43.4980  -10.0680 H   0  0  0  0  0
    8.7120   45.0300  -11.4690 H   0  0  0  0  0
    7.6800   45.5680  -10.1110 H   0  0  0  0  0
    6.9460   44.9060  -11.6120 H   0  0  0  0  0
    8.9510   40.1770  -10.9850 N   0  0  0  0  0
    9.1090   38.8470  -10.3860 C   0  0  0  0  0
   10.5380   36.4240  -12.4120 N   0  0  0  0  0
    9.5750   37.4320  -12.4580 C   0  0  0  0  0
    8.6170   37.7510  -11.3450 C   0  0  0  0  0
   10.6670   37.4600  -14.3560 N   0  0  0  0  0
    9.6580   38.0800  -13.6520 C   0  0  0  0  0
   11.1790   36.4800  -13.5900 C   0  0  0  0  0
   10.5320   38.5610   -9.9090 C   0  0  0  0  0
   11.4850   39.2640  -10.2290 O   0  0  0  0  0
    9.6890   40.5380  -11.5560 H   0  0  0  0  0
    8.4750   38.7970   -9.4880 H   0  0  0  0  0
    7.6400   38.0310  -11.7670 H   0  0  0  0  0
    8.4720   36.8230  -10.7720 H   0  0  0  0  0
    9.0360   38.9310  -13.9680 H   0  0  0  0  0
   12.0060   35.8180  -13.8850 H   0  0  0  0  0
   10.9670   37.6830  -15.2830 H   0  0  0  0  0
   10.6210   37.5940   -9.0040 N   0  0  0  0  0
   11.8520   36.9290   -8.5930 C   0  0  0  0  0
   12.5290   37.7000   -7.4450 C   0  0  0  0  0
   11.6640   37.4630   -5.8620 S   0  0  0  0  0
   11.4860   35.4910   -8.2030 C   0  0  0  0  0
   10.2970   35.2110   -8.0570 O   0  0  0  0  0
    9.7850   37.0770   -8.8220 H   0  0  0  0  0
   12.5220   36.8950   -9.4650 H   0  0  0  0  0
   13.5650   37.3480   -7.3270 H   0  0  0  0  0
   12.5730   38.7690   -7.7000 H   0  0  0  0  0
   12.7200   37.5940   -5.1150 H   0  0  0  0  0
   12.4580   34.6170   -7.8960 N   0  0  0  0  0
   12.2260   33.1600   -7.7880 C   0  0  0  0  0
   13.4590   32.4610   -7.1810 C   0  0  0  0  0
   13.4520   30.9940   -7.6240 C   0  0  0  0  0
   14.6740   30.1880   -7.1690 C   0  0  0  0  0
   14.7610   28.8540   -7.9320 C   0  0  0  0  0
   13.5120   28.0600   -7.8510 N   0  0  0  0  0
   10.9270   32.7290   -7.0930 C   0  0  0  0  0
   10.0870   32.0980   -7.7210 O   0  0  0  0  0
   13.4010   34.9210   -8.0310 H   0  0  0  0  0
   12.1100   32.7880   -8.8170 H   0  0  0  0  0
   14.3840   32.9320   -7.5460 H   0  0  0  0  0
   13.4430   32.5300   -6.0830 H   0  0  0  0  0
   13.4370   30.9850   -8.7240 H   0  0  0  0  0
   12.5380   30.5080   -7.2500 H   0  0  0  0  0
   14.6150   30.0070   -6.0860 H   0  0  0  0  0
   15.5860   30.7630   -7.3860 H   0  0  0  0  0
   14.9610   29.0800   -8.9900 H   0  0  0  0  0
   15.6080   28.2730   -7.5380 H   0  0  0  0  0
   13.1850   27.9780   -6.9090 H   0  0  0  0  0
   13.7230   27.1130   -8.0940 H   0  0  0  0  0
   12.7960   28.3790   -8.4720 H   0  0  0  0  0
   10.6440   33.2990   -5.9200 N   0  0  0  0  0
    9.4420   32.9840   -5.1280 C   0  0  0  0  0
    9.8790   32.6400   -3.6970 C   0  0  0  0  0
   10.8310   31.4490   -3.5920 C   0  0  0  0  0
   10.0820   29.8800   -4.0890 S   0  0  0  0  0
   11.4880   28.7820   -3.8010 C   0  0  0  0  0
    8.3920   34.1130   -5.0870 C   0  0  0  0  0
    7.4290   34.0340   -4.3280 O   0  0  0  0  0
   11.3360   33.9100   -5.5360 H   0  0  0  0  0
    8.9380   32.1050   -5.5560 H   0  0  0  0  0
   10.3780   33.5190   -3.2630 H   0  0  0  0  0
    8.9860   32.4060   -3.0990 H   0  0  0  0  0
   11.7260   31.6340   -4.2040 H   0  0  0  0  0
   11.1500   31.3620   -2.5430 H   0  0  0  0  0
   11.1830   27.7450   -4.0030 H   0  0  0  0  0
   12.3140   29.0650   -4.4700 H   0  0  0  0  0
   11.8150   28.8700   -2.7540 H   0  0  0  0  0
    8.6680   35.2620   -5.7090 N   0  0  0  0  0
    7.8910   36.4950   -5.5320 C   0  0  0  0  0
    7.9410   37.1150   -4.1240 C   0  0  0  0  0
    7.1760   38.0370   -3.8470 O   0  0  0  0  0
    9.4010   35.2650   -6.3890 H   0  0  0  0  0
    8.2680   37.2370   -6.2510 H   0  0  0  0  0
    6.8390   36.2890   -5.7770 H   0  0  0  0  0
    8.7580   36.5660   -3.2120 N   0  0  0  0  0
    8.7300   36.8850   -1.7700 C   0  0  0  0  0
    9.3200   35.7480   -0.9000 C   0  0  0  0  0
    8.4660   34.4760   -0.9590 C   0  0  0  0  0
   10.7870   35.4010   -1.2040 C   0  0  0  0  0
    9.4550   38.1730   -1.4030 C   0  0  0  0  0
    8.9750   38.8830   -0.5250 O   0  0  0  0  0
    9.2770   35.7610   -3.5010 H   0  0  0  0  0
    7.6800   37.0160   -1.4690 H   0  0  0  0  0
    9.2890   36.0880    0.1460 H   0  0  0  0  0
    9.0710   33.5850   -1.1820 H   0  0  0  0  0
    7.6700   34.5640   -1.7130 H   0  0  0  0  0
    8.0190   34.3170    0.0330 H   0  0  0  0  0
   11.0580   34.4270   -0.7700 H   0  0  0  0  0
   10.9910   35.3940   -2.2850 H   0  0  0  0  0
   11.4450   36.1400   -0.7230 H   0  0  0  0  0
   10.6130   38.4480   -2.0080 N   0  0  0  0  0
   11.6290   39.3130   -1.3930 C   0  0  0  0  0
   12.7280   38.4470   -0.7660 C   0  0  0  0  0
   13.8570   39.1800   -0.3530 O   0  0  0  0  0
   12.1460   40.3430   -2.3880 C   0  0  0  0  0
   11.4540   41.3400   -2.5530 O   0  0  0  0  0
   10.9230   37.8160   -2.7180 H   0  0  0  0  0
   11.1640   39.8930   -0.5820 H   0  0  0  0  0
   13.0490   37.7030   -1.5100 H   0  0  0  0  0
   12.3220   37.9160    0.1080 H   0  0  0  0  0
   14.6230   38.5370   -0.3680 H   0  0  0  0  0
   13.1190   40.0090   -3.2500 N   0  0  0  0  0
   13.6760   40.9300   -4.2690 C   0  0  0  0  0
   14.5870   40.1370   -5.2210 C   0  0  0  0  0
   15.8640   39.6130   -4.5560 C   0  0  0  0  0
   16.6270   38.7120   -5.5270 C   0  0  0  0  0
   16.0440   37.3590   -5.6160 N   0  0  0  0  0
   16.5640   36.3740   -6.3260 C   0  0  0  0  0
   17.5700   36.5380   -7.1180 N   0  0  0  0  0
   16.1050   35.1630   -6.2370 N   0  0  0  0  0
   12.6190   41.6950   -5.0800 C   0  0  0  0  0
   12.5650   42.9260   -5.0600 O   0  0  0  0  0
   13.6380   39.1810   -3.0390 H   0  0  0  0  0
   14.2770   41.6960   -3.7580 H   0  0  0  0  0
   14.0230   39.2910   -5.6400 H   0  0  0  0  0
   14.8870   40.7900   -6.0540 H   0  0  0  0  0
   15.6280   39.0440   -3.6440 H   0  0  0  0  0
   16.5050   40.4660   -4.2870 H   0  0  0  0  0
   17.6620   38.6230   -5.1640 H   0  0  0  0  0
   16.6830   39.1920   -6.5150 H   0  0  0  0  0
   15.3350   37.1210   -4.9520 H   0  0  0  0  0
   18.0430   37.4150   -7.1970 H   0  0  0  0  0
   17.9890   35.7560   -7.5800 H   0  0  0  0  0
   15.5640   34.9090   -5.4360 H   0  0  0  0  0
   16.6580   34.4820   -6.7180 H   0  0  0  0  0
   11.6560   40.9610   -5.6370 N   0  0  0  0  0
   10.5150   41.5320   -6.3600 C   0  0  0  0  0
    9.7460   40.4170   -7.0680 C   0  0  0  0  0
    9.2800   39.4430   -6.1540 O   0  0  0  0  0
    9.5620   42.3320   -5.4700 C   0  0  0  0  0
    9.1660   43.4310   -5.8410 O   0  0  0  0  0
   11.7150   39.9670   -5.5470 H   0  0  0  0  0
   10.8970   42.2190   -7.1300 H   0  0  0  0  0
    8.8850   40.8330   -7.6120 H   0  0  0  0  0
   10.4290   39.9430   -7.7880 H   0  0  0  0  0
    9.9850   38.7390   -6.0730 H   0  0  0  0  0
    9.1956   41.8754   -4.3894 O   0  0  0  0  0
    6.8056   43.2173  -12.8691 H   0  0  0  0  0
    6.6272   41.5920  -12.8277 H   0  0  0  0  0
   10.7160   35.7848  -11.6505 H   0  0  0  0  0
  1  8  1  0  0  0
  1  2  1  0  0  0
154  1  1  0  0  0
155  1  1  0  0  0
  2  9  1  0  0  0
  2  3  1  0  0  0
  2  6  1  0  0  0
  3 10  1  0  0  0
  3  4  1  0  0  0
  3  5  1  0  0  0
  4 11  1  0  0  0
  4 12  1  0  0  0
  4 13  1  0  0  0
  5 14  1  0  0  0
  5 15  1  0  0  0
  5 16  1  0  0  0
  6  7  2  0  0  0
  6 17  1  0  0  0
 17 27  1  0  0  0
 17 18  1  0  0  0
 18 28  1  0  0  0
 18 21  1  0  0  0
 18 25  1  0  0  0
 19 20  1  0  0  0
 19 24  1  0  0  0
156 19  1  0  0  0
 20 21  1  0  0  0
 20 23  2  0  0  0
 21 29  1  0  0  0
 21 30  1  0  0  0
 22 24  2  0  0  0
 22 23  1  0  0  0
 33 22  1  0  0  0
 23 31  1  0  0  0
 24 32  1  0  0  0
 25 26  2  0  0  0
 25 34  1  0  0  0
 34 40  1  0  0  0
 34 35  1  0  0  0
 35 41  1  0  0  0
 35 36  1  0  0  0
 35 38  1  0  0  0
 36 42  1  0  0  0
 36 43  1  0  0  0
 36 37  1  0  0  0
 37 44  1  0  0  0
 38 39  2  0  0  0
 38 45  1  0  0  0
 45 54  1  0  0  0
 45 46  1  0  0  0
 46 55  1  0  0  0
 46 47  1  0  0  0
 46 52  1  0  0  0
 47 56  1  0  0  0
 47 57  1  0  0  0
 47 48  1  0  0  0
 48 58  1  0  0  0
 48 59  1  0  0  0
 48 49  1  0  0  0
 49 60  1  0  0  0
 49 61  1  0  0  0
 49 50  1  0  0  0
 50 62  1  0  0  0
 50 63  1  0  0  0
 50 51  1  0  0  0
 51 64  1  0  0  0
 51 65  1  0  0  0
 51 66  1  0  0  0
 52 53  2  0  0  0
 52 67  1  0  0  0
 67 75  1  0  0  0
 67 68  1  0  0  0
 68 76  1  0  0  0
 68 69  1  0  0  0
 68 73  1  0  0  0
 69 77  1  0  0  0
 69 78  1  0  0  0
 69 70  1  0  0  0
 70 79  1  0  0  0
 70 80  1  0  0  0
 70 71  1  0  0  0
 71 72  1  0  0  0
 72 81  1  0  0  0
 72 82  1  0  0  0
 72 83  1  0  0  0
 73 74  2  0  0  0
 73 84  1  0  0  0
 84 88  1  0  0  0
 84 85  1  0  0  0
 85 89  1  0  0  0
 85 90  1  0  0  0
 85 86  1  0  0  0
 86 87  2  0  0  0
 86 91  1  0  0  0
 91 98  1  0  0  0
 91 92  1  0  0  0
 92 99  1  0  0  0
 92 93  1  0  0  0
 92 96  1  0  0  0
 93100  1  0  0  0
 93 94  1  0  0  0
 93 95  1  0  0  0
 94101  1  0  0  0
 94102  1  0  0  0
 94103  1  0  0  0
 95104  1  0  0  0
 95105  1  0  0  0
 95106  1  0  0  0
 96 97  2  0  0  0
 96107  1  0  0  0
107113  1  0  0  0
107108  1  0  0  0
108114  1  0  0  0
108109  1  0  0  0
108111  1  0  0  0
109115  1  0  0  0
109116  1  0  0  0
109110  1  0  0  0
110117  1  0  0  0
111112  2  0  0  0
111118  1  0  0  0
118129  1  0  0  0
118119  1  0  0  0
119127  1  0  0  0
119130  1  0  0  0
119120  1  0  0  0
120131  1  0  0  0
120132  1  0  0  0
120121  1  0  0  0
121133  1  0  0  0
121134  1  0  0  0
121122  1  0  0  0
122135  1  0  0  0
122136  1  0  0  0
122123  1  0  0  0
123137  1  0  0  0
123124  2  0  0  0
124125  2  0  0  0
124126  2  0  0  0
125138  1  0  0  0
125139  1  0  0  0
126141  1  0  0  0
126140  1  0  0  0
127128  2  0  0  0
127142  1  0  0  0
142148  1  0  0  0
142143  1  0  0  0
143149  1  0  0  0
143144  1  0  0  0
143146  1  0  0  0
144150  1  0  0  0
144151  1  0  0  0
144145  1  0  0  0
145152  1  0  0  0
146147  2  0  0  0
153146  2  0  0  0
M  END

